Version 4
SHEET 1 1144 680
WIRE 1056 -48 752 -48
WIRE 1056 -16 1056 -48
WIRE 144 0 0 0
WIRE 0 16 0 0
WIRE 752 32 752 -48
WIRE 752 32 672 32
WIRE 800 32 752 32
WIRE 672 48 672 32
WIRE 800 48 800 32
WIRE 160 80 128 80
WIRE 272 80 240 80
WIRE 0 112 0 96
WIRE 144 112 144 0
WIRE 192 112 144 112
WIRE 192 144 192 112
WIRE 800 144 800 128
WIRE 864 144 800 144
WIRE 944 144 928 144
WIRE 32 160 -64 160
WIRE 128 160 128 80
WIRE 128 160 112 160
WIRE 160 160 128 160
WIRE 800 160 800 144
WIRE 816 160 800 160
WIRE 272 176 272 80
WIRE 272 176 224 176
WIRE 480 176 272 176
WIRE -64 192 -64 160
WIRE 160 192 112 192
WIRE 864 208 800 208
WIRE 112 240 112 192
WIRE 480 240 480 176
WIRE 560 240 480 240
WIRE 672 240 672 128
WIRE 672 240 624 240
WIRE 720 240 720 208
WIRE 720 240 672 240
WIRE 752 240 720 240
WIRE 192 256 192 208
WIRE 672 272 672 240
WIRE 800 272 800 256
WIRE 864 272 864 208
WIRE 864 272 800 272
WIRE -64 288 -64 272
WIRE 800 288 800 272
WIRE 192 352 192 336
WIRE 672 368 672 352
FLAG 112 240 0
FLAG -64 288 0
FLAG 192 352 0
FLAG 0 112 0
FLAG 800 288 0
FLAG 944 144 out
IOPIN 944 144 Out
FLAG 672 368 0
FLAG 1056 64 0
FLAG 816 160 Drain
IOPIN 816 160 Out
FLAG 720 208 Gate
IOPIN 720 208 Out
SYMBOL OpAmps\\LT6016 192 176 R0
SYMATTR InstName U1
SYMBOL res 128 144 R90
WINDOW 0 0 56 VBottom 2
WINDOW 3 32 56 VTop 2
SYMATTR InstName R1
SYMATTR Value 10k
SYMBOL res 256 64 R90
WINDOW 0 0 56 VBottom 2
WINDOW 3 32 56 VTop 2
SYMATTR InstName R2
SYMATTR Value 100k
SYMBOL voltage -64 176 R0
WINDOW 123 24 124 Left 2
WINDOW 39 0 0 Left 0
SYMATTR Value2 AC 1 0
SYMATTR InstName V1
SYMATTR Value SINE(0 1 10K)
SYMBOL voltage 0 0 R0
WINDOW 123 0 0 Left 0
WINDOW 39 0 0 Left 0
SYMATTR InstName Vcc
SYMATTR Value 15
SYMBOL voltage 192 240 R0
WINDOW 123 0 0 Left 0
WINDOW 39 0 0 Left 0
SYMATTR InstName VEE
SYMATTR Value -15
SYMBOL nmos4 752 160 R0
SYMATTR InstName M1
SYMATTR Value N_1u
SYMATTR Value2 l=1u w=448u
SYMBOL res 784 32 R0
SYMATTR InstName R3
SYMATTR Value 1k
SYMBOL cap 928 128 R90
WINDOW 0 0 32 VBottom 2
WINDOW 3 32 32 VTop 2
SYMATTR InstName C1
SYMATTR Value 0.1µ
SYMBOL cap 624 224 R90
WINDOW 0 0 32 VBottom 2
WINDOW 3 32 32 VTop 2
SYMATTR InstName C2
SYMATTR Value 0.1µ
SYMBOL res 656 32 R0
SYMATTR InstName R4
SYMATTR Value 200k
SYMBOL res 656 256 R0
SYMATTR InstName R5
SYMATTR Value 100k
SYMBOL voltage 1056 -32 R0
SYMATTR InstName Vdd1
SYMATTR Value 1.8
TEXT -96 376 Left 2 !.ac dec 100 1m 1G
TEXT 8 456 Left 2 !;.op
TEXT -80 424 Left 2 !;.tran 0 1m 0 0.1u
TEXT 768 336 Left 2 !.tran 0 1m 0 1u
TEXT 776 384 Left 2 !;.op
