Version 4
SHEET 1 1772 2416
WIRE 432 -32 240 -32
WIRE 432 64 432 -32
WIRE 240 112 240 -32
WIRE 192 192 32 192
WIRE 32 224 32 192
FLAG 32 304 0
FLAG 240 208 0
FLAG 432 144 0
SYMBOL voltage 432 48 R0
WINDOW 123 0 0 Left 0
WINDOW 39 0 0 Left 0
SYMATTR InstName Vds
SYMATTR Value 5
SYMBOL voltage 32 208 R0
WINDOW 123 0 0 Left 0
WINDOW 39 0 0 Left 0
SYMATTR InstName Vgs
SYMATTR Value 5
SYMBOL nmos 192 112 R0
SYMATTR InstName M1
TEXT 192 288 Left 2 !.dc Vgs 0 5 1 Vds 2 5 1
TEXT 464 216 Left 2 !.MODEL NMOS150 NMOS \n* Flags\n+ SIGN = 1 TG = -1 \n* Scale parameters\n+ SCALE = 1.0 XL = 0.0 XW = 0.0\n* Cgate parameters\n+ COX = 8.58E-3 GAMMAG = 18.4 AQMA = 0.0 AQMI = 0.0 ETAQM = 0.75\n* Nch. parameters\n+ VTO = 400.0E-3 PHIF = 450.0E-3 GAMMA = 300.0E-3 XJ = 30.0E-9 N0 = 1.025\n* Mobility\n+ KP = 390.0E-6 E0 = 438.0E+6 E1 = 159.0E+6 ETA = 0.57 ZC = 1.0E-6 THC = 0.0\n* Long-ch. gds degr.\n+ PDITS = 2.58E-6 PDITSD = 0.91 PDITSL = 0.0 FPROUT = 1.85E+6 DDITS = 0.1\n* Matching par.\n+ AVTO = 0.0 AKP = 0.0 AGAMMA = 0.0\n* Vsat & CLM par.\n+ UCRIT = 5.0E+6 DELTA = 1.5 LAMBDA = 0.5 ACLM = 0.85\n* Geometrical par.\n+ DL = -16.7E-9 DLC = -23.0E-9 WDL = 0.0 LL = 0.0 LLN = 1.0 DW = -45.3E-9 DWC = 0.0 LDW = 0.0\n* Charge sharing\n+ LETA0 = 1.0E+6 LETA = 1.3 LETA2 = 0.0 WETA = 1.0 NCS = 0.5\n* DIBL\n+ ETAD = 0. 75 SIGMAD = 1.0\n* RSCE\n+ LR = 100E-9 QLR = 580E-6 NLR = 100.0E-3 FLR = 2\n* INWE\n+ WR = 80.0E-9 QWR = 500.0E-6 NWR = 12.0E-3\n* Series resistance\n+ RLX = 170.0E-6\n* Overlap & fringing\n+ LOV = 25.0E-9 GAMMAOV = 5.0 VFBOV = 0.0 KJF = 150.0E-12 CJF = 300.0E-3 \n* Gate current \n+ KG = 50.0E-6 XB = 5.5 EB = 21.0E+9 LOVIG = 40.0E-12\n* Temperature par.\n+ TNOM = 30.0 TCV = 600.0E-6 BEX = -1.6 TE0EX = -4.15 TE1EX = 0.0 TETA = 2.0E-3 \n+ UCEX = 1.2 TLAMBDA = 0.15 TCVL = 0.0 TCVW = 0.0 TCVWL = 0.0\n*
